<additional>
    <tlLogic id="0" type="static" programID="1" offset="0">
        <phase duration="33" state="GGGrrrrrGGGrrrrr"/>
        <phase duration="3" state="yyyrrrrryyyrrrrr"/>
        <phase duration="6" state="rrrGrrrrrrrGrrrr"/>
        <phase duration="3" state="rrryrrrrrrryrrrr"/>
        <phase duration="33" state="rrrrGGGgrrrrGGGg"/>
        <phase duration="3" state="rrrryyygrrrryyyg"/>
        <phase duration="6" state="rrrrrrrGrrrrrrrG"/>
        <phase duration="3" state="rrrrrrryrrrrrrry"/>
    </tlLogic>
        <tlLogic id="0" type="static" programID="2" offset="0">
        <phase duration="33" state="GGGrrrrrGGGrrrrr"/>
        <phase duration="3" state="yyygrrrryyygrrrr"/>
        <phase duration="6" state="rrrGrrrrrrrGrrrr"/>
        <phase duration="3" state="rrryrrrrrrryrrrr"/>
        <phase duration="33" state="rrrrGGGrrrrrGGGr"/>
        <phase duration="3" state="rrrryyyrrrrryyyr"/>
        <phase duration="6" state="rrrrrrrGrrrrrrrG"/>
        <phase duration="3" state="rrrrrrryrrrrrrry"/>
    </tlLogic>
</additional>
