<?xml version="1.0" encoding="UTF-8"?>

<!-- generated on 2022-03-09 12:54:10 by Eclipse SUMO netedit Version 1.12.0
<configuration xmlns:xsi="http://www.w3.org/2001/XMLSchema-instance" xsi:noNamespaceSchemaLocation="http://sumo.dlr.de/xsd/netconvertConfiguration.xsd">

    <input>
        <sumo-net-file value="C:\Users\Wenlu\PycharmProjects\singleIntersection\cross\net.net.xml"/>
    </input>

    <output>
        <output-file value="C:\Users\Wenlu\PycharmProjects\singleIntersection\cross\net.net.xml"/>
    </output>

    <processing>
        <geometry.min-radius.fix.railways value="false"/>
        <geometry.max-grade.fix value="false"/>
        <offset.disable-normalization value="true"/>
        <lefthand value="false"/>
    </processing>

    <junctions>
        <no-turnarounds value="true"/>
        <junctions.corner-detail value="0"/>
        <junctions.limit-turn-speed value="-1"/>
        <rectangular-lane-cut value="false"/>
    </junctions>

    <pedestrian>
        <walkingareas value="false"/>
    </pedestrian>

    <report>
        <aggregate-warnings value="5"/>
    </report>

</configuration>
-->

<net version="1.9" xmlns:xsi="http://www.w3.org/2001/XMLSchema-instance" xsi:noNamespaceSchemaLocation="http://sumo.dlr.de/xsd/net_file.xsd">

    <location netOffset="500.00,500.00" convBoundary="0.00,0.00,1000.00,1000.00" origBoundary="-500.00,-500.00,500.00,500.00" projParameter="!"/>

    <edge id=":0_0" function="internal">
        <lane id=":0_0_0" index="0" speed="45.00" length="9.03" shape="495.20,510.40 494.85,507.95 493.80,506.20 492.05,505.15 489.60,504.80"/>
    </edge>
    <edge id=":0_1" function="internal">
        <lane id=":0_1_0" index="0" speed="45.00" length="20.80" shape="495.20,510.40 495.20,489.60"/>
        <lane id=":0_1_1" index="1" speed="45.00" length="20.80" shape="498.40,510.40 498.40,489.60"/>
    </edge>
    <edge id=":0_3" function="internal">
        <lane id=":0_3_0" index="0" speed="45.00" length="5.01" shape="498.40,510.40 499.11,505.44"/>
    </edge>
    <edge id=":0_4" function="internal">
        <lane id=":0_4_0" index="0" speed="45.00" length="1.44" shape="498.40,510.40 499.20,509.20"/>
    </edge>
    <edge id=":0_18" function="internal">
        <lane id=":0_18_0" index="0" speed="45.00" length="14.34" shape="499.11,505.44 499.15,505.15 501.40,501.40 505.15,499.15 510.40,498.40"/>
    </edge>
    <edge id=":0_19" function="internal">
        <lane id=":0_19_0" index="0" speed="45.00" length="3.23" shape="499.20,509.20 500.00,508.80 500.80,509.20 501.60,510.40"/>
    </edge>
    <edge id=":0_5" function="internal">
        <lane id=":0_5_0" index="0" speed="45.00" length="9.03" shape="510.40,504.80 507.95,505.15 506.20,506.20 505.15,507.95 504.80,510.40"/>
    </edge>
    <edge id=":0_6" function="internal">
        <lane id=":0_6_0" index="0" speed="45.00" length="20.80" shape="510.40,501.60 489.60,501.60"/>
    </edge>
    <edge id=":0_7" function="internal">
        <lane id=":0_7_0" index="0" speed="45.00" length="5.01" shape="510.40,501.60 505.44,500.89"/>
    </edge>
    <edge id=":0_8" function="internal">
        <lane id=":0_8_0" index="0" speed="45.00" length="1.44" shape="510.40,501.60 509.20,500.80"/>
    </edge>
    <edge id=":0_20" function="internal">
        <lane id=":0_20_0" index="0" speed="45.00" length="14.34" shape="505.44,500.89 505.15,500.85 501.40,498.60 499.15,494.85 498.40,489.60"/>
    </edge>
    <edge id=":0_21" function="internal">
        <lane id=":0_21_0" index="0" speed="45.00" length="3.23" shape="509.20,500.80 508.80,500.00 509.20,499.20 510.40,498.40"/>
    </edge>
    <edge id=":0_9" function="internal">
        <lane id=":0_9_0" index="0" speed="45.00" length="9.03" shape="504.80,489.60 505.15,492.05 506.20,493.80 507.95,494.85 510.40,495.20"/>
    </edge>
    <edge id=":0_10" function="internal">
        <lane id=":0_10_0" index="0" speed="45.00" length="20.80" shape="504.80,489.60 504.80,510.40"/>
        <lane id=":0_10_1" index="1" speed="45.00" length="20.80" shape="501.60,489.60 501.60,510.40"/>
    </edge>
    <edge id=":0_12" function="internal">
        <lane id=":0_12_0" index="0" speed="45.00" length="5.01" shape="501.60,489.60 500.89,494.56"/>
    </edge>
    <edge id=":0_13" function="internal">
        <lane id=":0_13_0" index="0" speed="45.00" length="1.44" shape="501.60,489.60 500.80,490.80"/>
    </edge>
    <edge id=":0_22" function="internal">
        <lane id=":0_22_0" index="0" speed="45.00" length="14.34" shape="500.89,494.56 500.85,494.85 498.60,498.60 494.85,500.85 489.60,501.60"/>
    </edge>
    <edge id=":0_23" function="internal">
        <lane id=":0_23_0" index="0" speed="45.00" length="3.23" shape="500.80,490.80 500.00,491.20 499.20,490.80 498.40,489.60"/>
    </edge>
    <edge id=":0_14" function="internal">
        <lane id=":0_14_0" index="0" speed="45.00" length="9.03" shape="489.60,495.20 492.05,494.85 493.80,493.80 494.85,492.05 495.20,489.60"/>
    </edge>
    <edge id=":0_15" function="internal">
        <lane id=":0_15_0" index="0" speed="45.00" length="20.80" shape="489.60,498.40 510.40,498.40"/>
    </edge>
    <edge id=":0_16" function="internal">
        <lane id=":0_16_0" index="0" speed="45.00" length="5.01" shape="489.60,498.40 494.56,499.11"/>
    </edge>
    <edge id=":0_17" function="internal">
        <lane id=":0_17_0" index="0" speed="45.00" length="1.44" shape="489.60,498.40 490.80,499.20"/>
    </edge>
    <edge id=":0_24" function="internal">
        <lane id=":0_24_0" index="0" speed="45.00" length="14.34" shape="494.56,499.11 494.85,499.15 498.60,501.40 500.85,505.15 501.60,510.40"/>
    </edge>
    <edge id=":0_25" function="internal">
        <lane id=":0_25_0" index="0" speed="45.00" length="3.23" shape="490.80,499.20 491.20,500.00 490.80,500.80 489.60,501.60"/>
    </edge>
    <edge id=":1_0" function="internal">
        <lane id=":1_0_0" index="0" speed="45.00" length="4.67" shape="0.00,501.60 -1.20,500.80 -1.60,500.00 -1.20,499.20 0.00,498.40"/>
    </edge>
    <edge id=":2_0" function="internal">
        <lane id=":2_0_0" index="0" speed="45.00" length="4.67" shape="1000.00,498.40 1001.20,499.20 1001.60,500.00 1001.20,500.80 1000.00,501.60"/>
    </edge>
    <edge id=":3_0" function="internal">
        <lane id=":3_0_0" index="0" speed="45.00" length="4.67" shape="498.40,0.00 499.20,-1.20 500.00,-1.60 500.80,-1.20 501.60,0.00"/>
    </edge>
    <edge id=":4_0" function="internal">
        <lane id=":4_0_0" index="0" speed="45.00" length="4.67" shape="501.60,1000.00 500.80,1001.20 500.00,1001.60 499.20,1001.20 498.40,1000.00"/>
    </edge>

    <edge id="1i" from="1" to="0" priority="-1">
        <lane id="1i_0" index="0" speed="45.00" length="489.60" shape="0.00,495.20 489.60,495.20"/>
        <lane id="1i_1" index="1" speed="45.00" length="489.60" shape="0.00,498.40 489.60,498.40"/>
    </edge>
    <edge id="1o" from="0" to="1" priority="-1">
        <lane id="1o_0" index="0" speed="45.00" length="489.60" shape="489.60,504.80 0.00,504.80"/>
        <lane id="1o_1" index="1" speed="45.00" length="489.60" shape="489.60,501.60 0.00,501.60"/>
    </edge>
    <edge id="2i" from="2" to="0" priority="-1">
        <lane id="2i_0" index="0" speed="45.00" length="489.60" shape="1000.00,504.80 510.40,504.80"/>
        <lane id="2i_1" index="1" speed="45.00" length="489.60" shape="1000.00,501.60 510.40,501.60"/>
    </edge>
    <edge id="2o" from="0" to="2" priority="-1">
        <lane id="2o_0" index="0" speed="45.00" length="489.60" shape="510.40,495.20 1000.00,495.20"/>
        <lane id="2o_1" index="1" speed="45.00" length="489.60" shape="510.40,498.40 1000.00,498.40"/>
    </edge>
    <edge id="3i" from="3" to="0" priority="-1">
        <lane id="3i_0" index="0" speed="45.00" length="489.60" shape="504.80,0.00 504.80,489.60"/>
        <lane id="3i_1" index="1" speed="45.00" length="489.60" shape="501.60,0.00 501.60,489.60"/>
    </edge>
    <edge id="3o" from="0" to="3" priority="-1">
        <lane id="3o_0" index="0" speed="45.00" length="489.60" shape="495.20,489.60 495.20,0.00"/>
        <lane id="3o_1" index="1" speed="45.00" length="489.60" shape="498.40,489.60 498.40,0.00"/>
    </edge>
    <edge id="4i" from="4" to="0" priority="-1">
        <lane id="4i_0" index="0" speed="45.00" length="489.60" shape="495.20,1000.00 495.20,510.40"/>
        <lane id="4i_1" index="1" speed="45.00" length="489.60" shape="498.40,1000.00 498.40,510.40"/>
    </edge>
    <edge id="4o" from="0" to="4" priority="-1">
        <lane id="4o_0" index="0" speed="45.00" length="489.60" shape="504.80,510.40 504.80,1000.00"/>
        <lane id="4o_1" index="1" speed="45.00" length="489.60" shape="501.60,510.40 501.60,1000.00"/>
    </edge>

    <tlLogic id="0" type="static" programID="0" offset="0">
        <phase duration="31" state="GGGggrrrrGGGggrrrr"/>
        <phase duration="6"  state="rrrGGrrrrrrrGGrrrr"/>
        <phase duration="31" state="rrrrrGGggrrrrrGGgg"/>
        <phase duration="6"  state="rrrrrrrGGrrrrrrrGG"/>
    </tlLogic>

    <junction id="0" type="traffic_light" x="500.00" y="500.00" incLanes="4i_0 4i_1 2i_0 2i_1 3i_0 3i_1 1i_0 1i_1" intLanes=":0_0_0 :0_1_0 :0_1_1 :0_18_0 :0_19_0 :0_5_0 :0_6_0 :0_20_0 :0_21_0 :0_9_0 :0_10_0 :0_10_1 :0_22_0 :0_23_0 :0_14_0 :0_15_0 :0_24_0 :0_25_0" shape="493.60,510.40 506.40,510.40 510.40,506.40 510.40,493.60 506.40,489.60 493.60,489.60 489.60,493.60 489.60,506.40">
        <request index="0"  response="000000000000000000" foes="000000000000000000" cont="0"/>
        <request index="1"  response="010000000010000000" foes="011111000011000000" cont="0"/>
        <request index="2"  response="010000000010000000" foes="011111000011000000" cont="0"/>
        <request index="3"  response="010000110010000000" foes="011000110111000000" cont="1"/>
        <request index="4"  response="010000110000000000" foes="010000110000000000" cont="1"/>
        <request index="5"  response="000000110000000000" foes="000000110000000000" cont="0"/>
        <request index="6"  response="000001110000001110" foes="110001110000001110" cont="0"/>
        <request index="7"  response="001001110000001110" foes="001011110000001110" cont="1"/>
        <request index="8"  response="001000000000001000" foes="001000000000001000" cont="1"/>
        <request index="9"  response="000000000000000000" foes="000000000000000000" cont="0"/>
        <request index="10" response="010000000010000000" foes="011000000011111000" cont="0"/>
        <request index="11" response="010000000010000000" foes="011000000011111000" cont="0"/>
        <request index="12" response="010000000010000110" foes="111000000011000110" cont="1"/>
        <request index="13" response="000000000010000110" foes="000000000010000110" cont="1"/>
        <request index="14" response="000000000000000110" foes="000000000000000110" cont="0"/>
        <request index="15" response="000001110000001110" foes="000001110110001110" cont="0"/>
        <request index="16" response="000001110001001110" foes="000001110001011110" cont="1"/>
        <request index="17" response="000001000001000000" foes="000001000001000000" cont="1"/>
    </junction>
    <junction id="1" type="priority" x="0.00" y="500.00" incLanes="1o_0 1o_1" intLanes=":1_0_0" shape="0.00,500.00 0.00,506.40 0.00,500.00">
        <request index="0" response="0" foes="0" cont="0"/>
    </junction>
    <junction id="2" type="priority" x="1000.00" y="500.00" incLanes="2o_0 2o_1" intLanes=":2_0_0" shape="1000.00,500.00 1000.00,493.60 1000.00,500.00">
        <request index="0" response="0" foes="0" cont="0"/>
    </junction>
    <junction id="3" type="priority" x="500.00" y="0.00" incLanes="3o_0 3o_1" intLanes=":3_0_0" shape="500.00,0.00 493.60,0.00 500.00,0.00">
        <request index="0" response="0" foes="0" cont="0"/>
    </junction>
    <junction id="4" type="priority" x="500.00" y="1000.00" incLanes="4o_0 4o_1" intLanes=":4_0_0" shape="500.00,1000.00 506.40,1000.00 500.00,1000.00">
        <request index="0" response="0" foes="0" cont="0"/>
    </junction>

    <junction id=":0_18_0" type="internal" x="499.11" y="505.44" incLanes=":0_3_0 3i_0 3i_1" intLanes=":0_6_0 :0_7_0 :0_8_0 :0_9_0 :0_10_0 :0_10_1 :0_15_0 :0_16_0"/>
    <junction id=":0_19_0" type="internal" x="499.20" y="509.20" incLanes=":0_4_0 1i_1 2i_0 3i_0 3i_1" intLanes=":0_5_0 :0_10_0 :0_10_1 :0_16_0"/>
    <junction id=":0_20_0" type="internal" x="505.44" y="500.89" incLanes=":0_7_0 1i_0 1i_1" intLanes=":0_1_0 :0_1_1 :0_3_0 :0_10_0 :0_10_1 :0_12_0 :0_13_0 :0_14_0 :0_15_0"/>
    <junction id=":0_21_0" type="internal" x="509.20" y="500.80" incLanes=":0_8_0 1i_1 3i_0 4i_1" intLanes=":0_3_0 :0_9_0 :0_15_0"/>
    <junction id=":0_22_0" type="internal" x="500.89" y="494.56" incLanes=":0_12_0 4i_0 4i_1" intLanes=":0_0_0 :0_1_0 :0_1_1 :0_6_0 :0_7_0 :0_15_0 :0_16_0 :0_17_0"/>
    <junction id=":0_23_0" type="internal" x="500.80" y="490.80" incLanes=":0_13_0 1i_0 2i_1 4i_0 4i_1" intLanes=":0_1_0 :0_1_1 :0_7_0 :0_14_0"/>
    <junction id=":0_24_0" type="internal" x="494.56" y="499.11" incLanes=":0_16_0 2i_0 2i_1" intLanes=":0_1_0 :0_1_1 :0_3_0 :0_4_0 :0_5_0 :0_6_0 :0_10_0 :0_10_1 :0_12_0"/>
    <junction id=":0_25_0" type="internal" x="490.80" y="499.20" incLanes=":0_17_0 2i_1 3i_1 4i_0" intLanes=":0_0_0 :0_6_0 :0_12_0"/>

    <connection from="1i" to="3o" fromLane="0" toLane="0" via=":0_14_0" tl="0" linkIndex="14" dir="r" state="o"/>
    <connection from="1i" to="2o" fromLane="1" toLane="1" via=":0_15_0" tl="0" linkIndex="15" dir="s" state="o"/>
    <connection from="1i" to="4o" fromLane="1" toLane="1" via=":0_16_0" tl="0" linkIndex="16" dir="l" state="o"/>
    <connection from="1i" to="1o" fromLane="1" toLane="1" via=":0_17_0" tl="0" linkIndex="17" dir="t" state="o"/>
    <connection from="1o" to="1i" fromLane="1" toLane="1" via=":1_0_0" dir="t" state="M"/>
    <connection from="2i" to="4o" fromLane="0" toLane="0" via=":0_5_0" tl="0" linkIndex="5" dir="r" state="o"/>
    <connection from="2i" to="1o" fromLane="1" toLane="1" via=":0_6_0" tl="0" linkIndex="6" dir="s" state="o"/>
    <connection from="2i" to="3o" fromLane="1" toLane="1" via=":0_7_0" tl="0" linkIndex="7" dir="l" state="o"/>
    <connection from="2i" to="2o" fromLane="1" toLane="1" via=":0_8_0" tl="0" linkIndex="8" dir="t" state="o"/>
    <connection from="2o" to="2i" fromLane="1" toLane="1" via=":2_0_0" dir="t" state="M"/>
    <connection from="3i" to="2o" fromLane="0" toLane="0" via=":0_9_0" tl="0" linkIndex="9" dir="r" state="O"/>
    <connection from="3i" to="4o" fromLane="0" toLane="0" via=":0_10_0" tl="0" linkIndex="10" dir="s" state="O"/>
    <connection from="3i" to="4o" fromLane="1" toLane="1" via=":0_10_1" tl="0" linkIndex="11" dir="s" state="O"/>
    <connection from="3i" to="1o" fromLane="1" toLane="1" via=":0_12_0" tl="0" linkIndex="12" dir="l" state="o"/>
    <connection from="3i" to="3o" fromLane="1" toLane="1" via=":0_13_0" tl="0" linkIndex="13" dir="t" state="o"/>
    <connection from="3o" to="3i" fromLane="1" toLane="1" via=":3_0_0" dir="t" state="M"/>
    <connection from="4i" to="1o" fromLane="0" toLane="0" via=":0_0_0" tl="0" linkIndex="0" dir="r" state="O"/>
    <connection from="4i" to="3o" fromLane="0" toLane="0" via=":0_1_0" tl="0" linkIndex="1" dir="s" state="O"/>
    <connection from="4i" to="3o" fromLane="1" toLane="1" via=":0_1_1" tl="0" linkIndex="2" dir="s" state="O"/>
    <connection from="4i" to="2o" fromLane="1" toLane="1" via=":0_3_0" tl="0" linkIndex="3" dir="l" state="o"/>
    <connection from="4i" to="4o" fromLane="1" toLane="1" via=":0_4_0" tl="0" linkIndex="4" dir="t" state="o"/>
    <connection from="4o" to="4i" fromLane="1" toLane="1" via=":4_0_0" dir="t" state="M"/>

    <connection from=":0_0" to="1o" fromLane="0" toLane="0" dir="r" state="M"/>
    <connection from=":0_1" to="3o" fromLane="0" toLane="0" dir="s" state="M"/>
    <connection from=":0_1" to="3o" fromLane="1" toLane="1" dir="s" state="M"/>
    <connection from=":0_3" to="2o" fromLane="0" toLane="1" via=":0_18_0" dir="l" state="m"/>
    <connection from=":0_18" to="2o" fromLane="0" toLane="1" dir="l" state="M"/>
    <connection from=":0_4" to="4o" fromLane="0" toLane="1" via=":0_19_0" dir="t" state="m"/>
    <connection from=":0_19" to="4o" fromLane="0" toLane="1" dir="t" state="M"/>
    <connection from=":0_5" to="4o" fromLane="0" toLane="0" dir="r" state="M"/>
    <connection from=":0_6" to="1o" fromLane="0" toLane="1" dir="s" state="M"/>
    <connection from=":0_7" to="3o" fromLane="0" toLane="1" via=":0_20_0" dir="l" state="m"/>
    <connection from=":0_20" to="3o" fromLane="0" toLane="1" dir="l" state="M"/>
    <connection from=":0_8" to="2o" fromLane="0" toLane="1" via=":0_21_0" dir="t" state="m"/>
    <connection from=":0_21" to="2o" fromLane="0" toLane="1" dir="t" state="M"/>
    <connection from=":0_9" to="2o" fromLane="0" toLane="0" dir="r" state="M"/>
    <connection from=":0_10" to="4o" fromLane="0" toLane="0" dir="s" state="M"/>
    <connection from=":0_10" to="4o" fromLane="1" toLane="1" dir="s" state="M"/>
    <connection from=":0_12" to="1o" fromLane="0" toLane="1" via=":0_22_0" dir="l" state="m"/>
    <connection from=":0_22" to="1o" fromLane="0" toLane="1" dir="l" state="M"/>
    <connection from=":0_13" to="3o" fromLane="0" toLane="1" via=":0_23_0" dir="t" state="m"/>
    <connection from=":0_23" to="3o" fromLane="0" toLane="1" dir="t" state="M"/>
    <connection from=":0_14" to="3o" fromLane="0" toLane="0" dir="r" state="M"/>
    <connection from=":0_15" to="2o" fromLane="0" toLane="1" dir="s" state="M"/>
    <connection from=":0_16" to="4o" fromLane="0" toLane="1" via=":0_24_0" dir="l" state="m"/>
    <connection from=":0_24" to="4o" fromLane="0" toLane="1" dir="l" state="M"/>
    <connection from=":0_17" to="1o" fromLane="0" toLane="1" via=":0_25_0" dir="t" state="m"/>
    <connection from=":0_25" to="1o" fromLane="0" toLane="1" dir="t" state="M"/>
    <connection from=":1_0" to="1i" fromLane="0" toLane="1" dir="t" state="M"/>
    <connection from=":2_0" to="2i" fromLane="0" toLane="1" dir="t" state="M"/>
    <connection from=":3_0" to="3i" fromLane="0" toLane="1" dir="t" state="M"/>
    <connection from=":4_0" to="4i" fromLane="0" toLane="1" dir="t" state="M"/>

</net>
